Circuit: * U:\LTspiceXVII\Draft1.asc


Date: Wed Nov 13 17:24:26 2019
Total elapsed time: 0.147 seconds.

tnom = 27
temp = 27
method = trap
totiter = 0
traniter = 0
tranpoints = 0
accept = 0
rejected = 0
matrix size = 3
fillins = 0
solver = Normal

